<?xml version="1.0" encoding="UTF-8"?>

<!-- generated on 2025-09-27 23:01:05.980593 by Eclipse SUMO createVehTypeDistribution.py v1_24_0+1042-13f1c477f60
  options: config.txt
-->

<additional>
    <vTypeDistribution id="vehDist">
        <vType id="vehDist0" startupDelay="6.394" tau="0.688" sigma="0.140" length="5.462" minGap="1.174" vClass="passenger" carFollowModel="Krauss"/>
        <vType id="vehDist1" startupDelay="4.219" tau="0.801" sigma="0.205" length="4.920" minGap="2.179" vClass="passenger" carFollowModel="Krauss"/>
        <vType id="vehDist2" startupDelay="8.094" tau="0.852" sigma="0.438" length="5.085" minGap="2.459" vClass="passenger" carFollowModel="Krauss"/>
        <vType id="vehDist3" startupDelay="5.362" tau="0.931" sigma="0.605" length="5.194" minGap="2.155" vClass="passenger" carFollowModel="Krauss"/>
        <vType id="vehDist4" startupDelay="7.046" tau="0.699" sigma="0.421" length="4.798" minGap="1.556" vClass="passenger" carFollowModel="Krauss"/>
        <vType id="vehDist5" startupDelay="6.357" tau="0.763" sigma="0.364" length="4.945" minGap="2.458" vClass="passenger" carFollowModel="Krauss"/>
        <vType id="vehDist6" startupDelay="1.634" tau="0.854" sigma="0.903" length="5.023" minGap="1.064" vClass="passenger" carFollowModel="Krauss"/>
        <vType id="vehDist7" startupDelay="3.155" tau="0.750" sigma="0.315" length="4.481" minGap="1.918" vClass="passenger" carFollowModel="Krauss"/>
        <vType id="vehDist8" startupDelay="2.649" tau="0.701" sigma="0.304" length="5.127" minGap="1.439" vClass="passenger" carFollowModel="Krauss"/>
        <vType id="vehDist9" startupDelay="9.975" tau="0.802" sigma="0.710" length="4.871" minGap="1.763" vClass="passenger" carFollowModel="Krauss"/>
        <vType id="vehDist10" startupDelay="9.961" tau="0.973" sigma="0.738" length="4.917" minGap="2.282" vClass="passenger" carFollowModel="Krauss"/>
        <vType id="vehDist11" startupDelay="1.116" tau="0.780" sigma="0.337" length="5.081" minGap="2.278" vClass="passenger" carFollowModel="Krauss"/>
        <vType id="vehDist12" startupDelay="6.090" tau="0.831" sigma="0.664" length="4.895" minGap="2.521" vClass="passenger" carFollowModel="Krauss"/>
        <vType id="vehDist13" startupDelay="7.658" tau="0.679" sigma="0.523" length="5.122" minGap="1.424" vClass="passenger" carFollowModel="Krauss"/>
        <vType id="vehDist14" startupDelay="5.393" tau="0.849" sigma="0.592" length="4.907" minGap="1.449" vClass="passenger" carFollowModel="Krauss"/>
        <vType id="vehDist15" startupDelay="3.381" tau="0.820" sigma="0.397" length="4.958" minGap="2.811" vClass="passenger" carFollowModel="Krauss"/>
        <vType id="vehDist16" startupDelay="8.596" tau="0.703" sigma="0.574" length="4.946" minGap="2.569" vClass="passenger" carFollowModel="Krauss"/>
        <vType id="vehDist17" startupDelay="8.075" tau="0.741" sigma="0.459" length="4.858" minGap="2.347" vClass="passenger" carFollowModel="Krauss"/>
        <vType id="vehDist18" startupDelay="9.842" tau="0.685" sigma="0.101" length="4.794" minGap="1.897" vClass="passenger" carFollowModel="Krauss"/>
        <vType id="vehDist19" startupDelay="4.219" tau="0.749" sigma="0.761" length="5.176" minGap="1.101" vClass="passenger" carFollowModel="Krauss"/>
        <vType id="vehDist20" startupDelay="9.993" tau="0.689" sigma="0.336" length="4.656" minGap="2.971" vClass="passenger" carFollowModel="Krauss"/>
        <vType id="vehDist21" startupDelay="2.652" tau="0.889" sigma="0.589" length="4.959" minGap="2.496" vClass="passenger" carFollowModel="Krauss"/>
        <vType id="vehDist22" startupDelay="0.572" tau="0.829" sigma="0.644" length="4.634" minGap="2.350" vClass="passenger" carFollowModel="Krauss"/>
        <vType id="vehDist23" startupDelay="2.352" tau="0.693" sigma="0.571" length="4.960" minGap="2.869" vClass="passenger" carFollowModel="Krauss"/>
        <vType id="vehDist24" startupDelay="2.043" tau="0.849" sigma="0.391" length="4.800" minGap="2.504" vClass="passenger" carFollowModel="Krauss"/>
        <vType id="vehDist25" startupDelay="0.725" tau="0.733" sigma="0.706" length="5.080" minGap="2.974" vClass="passenger" carFollowModel="Krauss"/>
        <vType id="vehDist26" startupDelay="6.540" tau="0.698" sigma="0.525" length="5.027" minGap="1.407" vClass="passenger" carFollowModel="Krauss"/>
        <vType id="vehDist27" startupDelay="6.342" tau="0.721" sigma="0.257" length="5.156" minGap="1.524" vClass="passenger" carFollowModel="Krauss"/>
        <vType id="vehDist28" startupDelay="7.412" tau="0.815" sigma="0.595" length="4.933" minGap="1.255" vClass="passenger" carFollowModel="Krauss"/>
        <vType id="vehDist29" startupDelay="3.083" tau="0.734" sigma="0.722" length="4.949" minGap="2.860" vClass="passenger" carFollowModel="Krauss"/>
        <vType id="vehDist30" startupDelay="8.646" tau="0.861" sigma="0.124" length="5.058" minGap="2.633" vClass="passenger" carFollowModel="Krauss"/>
        <vType id="vehDist31" startupDelay="4.603" tau="0.637" sigma="0.343" length="4.689" minGap="1.799" vClass="passenger" carFollowModel="Krauss"/>
        <vType id="vehDist32" startupDelay="9.811" tau="0.902" sigma="0.410" length="4.817" minGap="1.627" vClass="passenger" carFollowModel="Krauss"/>
        <vType id="vehDist33" startupDelay="6.062" tau="0.803" sigma="0.535" length="5.216" minGap="2.439" vClass="passenger" carFollowModel="Krauss"/>
        <vType id="vehDist34" startupDelay="7.420" tau="0.846" sigma="0.415" length="5.326" minGap="1.601" vClass="passenger" carFollowModel="Krauss"/>
        <vType id="vehDist35" startupDelay="3.093" tau="0.774" sigma="0.420" length="4.442" minGap="2.355" vClass="passenger" carFollowModel="Krauss"/>
        <vType id="vehDist36" startupDelay="9.028" tau="0.828" sigma="0.372" length="4.979" minGap="1.930" vClass="passenger" carFollowModel="Krauss"/>
        <vType id="vehDist37" startupDelay="4.422" tau="0.707" sigma="0.514" length="4.589" minGap="2.502" vClass="passenger" carFollowModel="Krauss"/>
        <vType id="vehDist38" startupDelay="6.728" tau="0.741" sigma="0.443" length="4.650" minGap="2.260" vClass="passenger" carFollowModel="Krauss"/>
        <vType id="vehDist39" startupDelay="1.944" tau="0.867" sigma="0.245" length="5.004" minGap="1.850" vClass="passenger" carFollowModel="Krauss"/>
        <vType id="vehDist40" startupDelay="1.759" tau="0.963" sigma="0.294" length="5.120" minGap="2.603" vClass="passenger" carFollowModel="Krauss"/>
        <vType id="vehDist41" startupDelay="6.676" tau="0.869" sigma="0.510" length="5.060" minGap="2.487" vClass="passenger" carFollowModel="Krauss"/>
        <vType id="vehDist42" startupDelay="4.747" tau="0.745" sigma="0.702" length="4.920" minGap="1.549" vClass="passenger" carFollowModel="Krauss"/>
        <vType id="vehDist43" startupDelay="0.775" tau="0.750" sigma="0.365" length="4.739" minGap="2.388" vClass="passenger" carFollowModel="Krauss"/>
        <vType id="vehDist44" startupDelay="7.064" tau="0.674" sigma="0.525" length="4.727" minGap="2.810" vClass="passenger" carFollowModel="Krauss"/>
        <vType id="vehDist45" startupDelay="5.841" tau="1.034" sigma="0.647" length="4.638" minGap="2.507" vClass="passenger" carFollowModel="Krauss"/>
        <vType id="vehDist46" startupDelay="8.534" tau="0.934" sigma="0.687" length="4.945" minGap="1.439" vClass="passenger" carFollowModel="Krauss"/>
        <vType id="vehDist47" startupDelay="4.358" tau="0.678" sigma="0.603" length="4.684" minGap="1.255" vClass="passenger" carFollowModel="Krauss"/>
        <vType id="vehDist48" startupDelay="6.223" tau="0.666" sigma="0.523" length="4.957" minGap="1.923" vClass="passenger" carFollowModel="Krauss"/>
        <vType id="vehDist49" startupDelay="0.503" tau="0.774" sigma="0.251" length="4.733" minGap="2.664" vClass="passenger" carFollowModel="Krauss"/>
        <vType id="vehDist50" startupDelay="2.523" tau="0.726" sigma="0.777" length="4.764" minGap="2.339" vClass="passenger" carFollowModel="Krauss"/>
        <vType id="vehDist51" startupDelay="5.640" tau="0.639" sigma="0.610" length="5.046" minGap="1.229" vClass="passenger" carFollowModel="Krauss"/>
        <vType id="vehDist52" startupDelay="8.193" tau="0.682" sigma="0.376" length="4.949" minGap="2.545" vClass="passenger" carFollowModel="Krauss"/>
        <vType id="vehDist53" startupDelay="8.503" tau="0.820" sigma="0.408" length="4.810" minGap="1.682" vClass="passenger" carFollowModel="Krauss"/>
        <vType id="vehDist54" startupDelay="8.496" tau="0.862" sigma="0.885" length="4.817" minGap="2.931" vClass="passenger" carFollowModel="Krauss"/>
        <vType id="vehDist55" startupDelay="2.701" tau="0.914" sigma="0.490" length="5.008" minGap="2.703" vClass="passenger" carFollowModel="Krauss"/>
        <vType id="vehDist56" startupDelay="8.307" tau="0.718" sigma="0.561" length="4.761" minGap="2.596" vClass="passenger" carFollowModel="Krauss"/>
        <vType id="vehDist57" startupDelay="3.403" tau="1.018" sigma="0.648" length="5.186" minGap="2.292" vClass="passenger" carFollowModel="Krauss"/>
        <vType id="vehDist58" startupDelay="4.908" tau="0.855" sigma="0.190" length="4.741" minGap="1.947" vClass="passenger" carFollowModel="Krauss"/>
        <vType id="vehDist59" startupDelay="5.309" tau="0.750" sigma="0.305" length="4.795" minGap="1.241" vClass="passenger" carFollowModel="Krauss"/>
        <vType id="vehDist60" startupDelay="1.926" tau="0.659" sigma="0.610" length="4.711" minGap="2.449" vClass="passenger" carFollowModel="Krauss"/>
        <vType id="vehDist61" startupDelay="9.766" tau="0.806" sigma="0.330" length="4.786" minGap="1.028" vClass="passenger" carFollowModel="Krauss"/>
        <vType id="vehDist62" startupDelay="5.341" tau="0.830" sigma="0.475" length="4.948" minGap="1.881" vClass="passenger" carFollowModel="Krauss"/>
        <vType id="vehDist63" startupDelay="1.844" tau="0.779" sigma="0.463" length="4.947" minGap="1.298" vClass="passenger" carFollowModel="Krauss"/>
        <vType id="vehDist64" startupDelay="5.628" tau="0.887" sigma="0.303" length="4.870" minGap="2.720" vClass="passenger" carFollowModel="Krauss"/>
        <vType id="vehDist65" startupDelay="9.900" tau="0.712" sigma="0.645" length="4.608" minGap="1.314" vClass="passenger" carFollowModel="Krauss"/>
        <vType id="vehDist66" startupDelay="1.738" tau="0.779" sigma="0.407" length="5.139" minGap="1.908" vClass="passenger" carFollowModel="Krauss"/>
        <vType id="vehDist67" startupDelay="6.874" tau="0.863" sigma="0.759" length="4.943" minGap="2.817" vClass="passenger" carFollowModel="Krauss"/>
        <vType id="vehDist68" startupDelay="8.266" tau="0.669" sigma="0.533" length="4.486" minGap="2.399" vClass="passenger" carFollowModel="Krauss"/>
        <vType id="vehDist69" startupDelay="9.427" tau="0.800" sigma="0.466" length="4.806" minGap="2.924" vClass="passenger" carFollowModel="Krauss"/>
        <vType id="vehDist70" startupDelay="8.360" tau="1.062" sigma="0.666" length="4.636" minGap="2.270" vClass="passenger" carFollowModel="Krauss"/>
        <vType id="vehDist71" startupDelay="4.917" tau="0.692" sigma="0.327" length="5.083" minGap="2.387" vClass="passenger" carFollowModel="Krauss"/>
        <vType id="vehDist72" startupDelay="2.882" tau="0.816" sigma="0.406" length="5.171" minGap="2.029" vClass="passenger" carFollowModel="Krauss"/>
        <vType id="vehDist73" startupDelay="9.881" tau="0.859" sigma="0.463" length="4.705" minGap="2.251" vClass="passenger" carFollowModel="Krauss"/>
        <vType id="vehDist74" startupDelay="7.600" tau="0.687" sigma="0.761" length="4.977" minGap="2.946" vClass="passenger" carFollowModel="Krauss"/>
        <vType id="vehDist75" startupDelay="6.089" tau="0.747" sigma="0.539" length="5.163" minGap="1.235" vClass="passenger" carFollowModel="Krauss"/>
        <vType id="vehDist76" startupDelay="8.321" tau="0.799" sigma="0.504" length="4.704" minGap="1.767" vClass="passenger" carFollowModel="Krauss"/>
        <vType id="vehDist77" startupDelay="9.219" tau="0.812" sigma="0.673" length="5.070" minGap="2.868" vClass="passenger" carFollowModel="Krauss"/>
        <vType id="vehDist78" startupDelay="5.077" tau="0.877" sigma="0.333" length="4.639" minGap="1.690" vClass="passenger" carFollowModel="Krauss"/>
        <vType id="vehDist79" startupDelay="5.519" tau="0.814" sigma="0.425" length="5.058" minGap="1.467" vClass="passenger" carFollowModel="Krauss"/>
        <vType id="vehDist80" startupDelay="7.755" tau="0.987" sigma="0.384" length="4.898" minGap="2.005" vClass="passenger" carFollowModel="Krauss"/>
        <vType id="vehDist81" startupDelay="5.902" tau="0.778" sigma="0.447" length="4.811" minGap="1.309" vClass="passenger" carFollowModel="Krauss"/>
        <vType id="vehDist82" startupDelay="4.695" tau="0.922" sigma="0.689" length="5.099" minGap="1.633" vClass="passenger" carFollowModel="Krauss"/>
        <vType id="vehDist83" startupDelay="7.187" tau="1.085" sigma="0.475" length="5.260" minGap="1.887" vClass="passenger" carFollowModel="Krauss"/>
        <vType id="vehDist84" startupDelay="6.940" tau="0.872" sigma="0.450" length="4.925" minGap="2.585" vClass="passenger" carFollowModel="Krauss"/>
        <vType id="vehDist85" startupDelay="1.700" tau="0.827" sigma="0.482" length="4.972" minGap="1.883" vClass="passenger" carFollowModel="Krauss"/>
        <vType id="vehDist86" startupDelay="3.456" tau="0.842" sigma="0.465" length="5.048" minGap="1.769" vClass="passenger" carFollowModel="Krauss"/>
        <vType id="vehDist87" startupDelay="4.832" tau="0.695" sigma="0.575" length="4.972" minGap="2.489" vClass="passenger" carFollowModel="Krauss"/>
        <vType id="vehDist88" startupDelay="0.490" tau="0.836" sigma="0.694" length="5.161" minGap="1.705" vClass="passenger" carFollowModel="Krauss"/>
        <vType id="vehDist89" startupDelay="6.366" tau="0.864" sigma="0.722" length="5.212" minGap="2.807" vClass="passenger" carFollowModel="Krauss"/>
        <vType id="vehDist90" startupDelay="6.463" tau="0.741" sigma="0.602" length="4.700" minGap="2.495" vClass="passenger" carFollowModel="Krauss"/>
        <vType id="vehDist91" startupDelay="1.756" tau="0.663" sigma="0.845" length="4.424" minGap="1.964" vClass="passenger" carFollowModel="Krauss"/>
        <vType id="vehDist92" startupDelay="8.065" tau="0.864" sigma="0.948" length="5.065" minGap="2.581" vClass="passenger" carFollowModel="Krauss"/>
        <vType id="vehDist93" startupDelay="0.139" tau="0.812" sigma="0.681" length="5.063" minGap="2.881" vClass="passenger" carFollowModel="Krauss"/>
        <vType id="vehDist94" startupDelay="1.083" tau="0.950" sigma="0.683" length="5.101" minGap="1.817" vClass="passenger" carFollowModel="Krauss"/>
        <vType id="vehDist95" startupDelay="1.398" tau="0.910" sigma="0.497" length="4.852" minGap="2.486" vClass="passenger" carFollowModel="Krauss"/>
        <vType id="vehDist96" startupDelay="9.460" tau="0.746" sigma="0.297" length="4.631" minGap="1.816" vClass="passenger" carFollowModel="Krauss"/>
        <vType id="vehDist97" startupDelay="9.515" tau="0.673" sigma="0.107" length="5.040" minGap="2.956" vClass="passenger" carFollowModel="Krauss"/>
        <vType id="vehDist98" startupDelay="3.587" tau="0.778" sigma="0.454" length="5.021" minGap="1.043" vClass="passenger" carFollowModel="Krauss"/>
        <vType id="vehDist99" startupDelay="7.868" tau="0.750" sigma="0.524" length="5.015" minGap="1.432" vClass="passenger" carFollowModel="Krauss"/>
    </vTypeDistribution>
</additional>
